ptf ~	
# RIV for MODFLOW, generated by Flopy.
        15        53
        15         0
        1         1         1  5.100000e+02  ~Rcond~  5.060000e+02
        1         1         2  5.095000e+02  ~Rcond~  5.055000e+02
        1         1         3  5.090000e+02  ~Rcond~  5.050000e+02
        1         1         4  5.085000e+02  ~Rcond~  5.045000e+02
        1         1         5  5.080000e+02  ~Rcond~  5.040000e+02
        1         1         6  5.075000e+02  ~Rcond~  5.035000e+02
        1         1         7  5.070000e+02  ~Rcond~  5.030000e+02
        1         2         8  5.065000e+02  ~Rcond~  5.025000e+02
        1         3         9  5.060000e+02  ~Rcond~  5.020000e+02
        1         3        10  5.055000e+02  ~Rcond~  5.015000e+02
        1         3        11  5.050000e+02  ~Rcond~  5.010000e+02
        1         3        12  5.045000e+02  ~Rcond~  5.005000e+02
        1         2        13  5.040000e+02  ~Rcond~  5.000000e+02
        1         2        14  5.035000e+02  ~Rcond~  4.995000e+02
        1         1        15  5.030000e+02  ~Rcond~  4.990000e+02
        15         0
        1         1         1  5.100000e+02  ~Rcond~  5.060000e+02
        1         1         2  5.095000e+02  ~Rcond~  5.055000e+02
        1         1         3  5.090000e+02  ~Rcond~  5.050000e+02
        1         1         4  5.085000e+02  ~Rcond~  5.045000e+02
        1         1         5  5.080000e+02  ~Rcond~  5.040000e+02
        1         1         6  5.075000e+02  ~Rcond~  5.035000e+02
        1         1         7  5.070000e+02  ~Rcond~  5.030000e+02
        1         2         8  5.065000e+02  ~Rcond~  5.025000e+02
        1         3         9  5.060000e+02  ~Rcond~  5.020000e+02
        1         3        10  5.055000e+02  ~Rcond~  5.015000e+02
        1         3        11  5.050000e+02  ~Rcond~  5.010000e+02
        1         3        12  5.045000e+02  ~Rcond~  5.005000e+02
        1         2        13  5.040000e+02  ~Rcond~  5.000000e+02
        1         2        14  5.035000e+02  ~Rcond~  4.995000e+02
        1         1        15  5.030000e+02  ~Rcond~  4.990000e+02
