ptf ~
# UPW for MODFLOW-NWT, generated by Flopy.
        53    -1E+30         0         0 
         1
         0
         1
         0
         0
INTERNAL               1 (FREE)  -1 #hk Layer 1                    
   ~Ksand~   ~Ksand~   ~Ksand~   ~Ksand~   ~Ksand~   ~Ksand~   ~Ksand~   ~Ksand~   ~Ksand~   ~Ksand~   ~Ksand~   ~Ksand~   ~Ksand~   ~Ksand~   ~Ksand~
   ~Ksand~   ~Ksand~   ~Ksand~   ~Ksand~   ~Ksand~   ~Ksand~   ~Ksand~   ~Ksand~   ~Ksand~   ~Ksand~   ~Ksand~   ~Ksand~   ~Ksand~   ~Ksand~   ~Ksand~
   ~Ksand~   ~Ksand~   ~Ksand~   ~Ksand~   ~Ksand~   ~Ksand~   ~Ksand~   ~Ksand~   ~Ksand~   ~Ksand~   ~Ksand~   ~Ksand~   ~Ksand~   ~Ksand~   ~Ksand~
   ~Ksand~   ~Ksand~   ~Ksand~   ~Ksand~   ~Ksand~   ~Ksand~   ~Ksand~   ~Ksand~   ~Ksand~   ~Ksand~   ~Ksand~   ~Ksand~   ~Ksand~   ~Ksand~   ~Ksand~
   ~Ksand~   ~Ksand~   ~Ksand~   ~Ksand~   ~Ksand~   ~Ksand~   ~Ksand~   ~Ksand~   ~Ksand~   ~Ksand~   ~Ksand~   ~Ksand~   ~Ksand~   ~Ksand~   ~Ksand~
   ~Ksand~   ~Ksand~   ~Ksand~   ~Ksilt~   ~Ksilt~   ~Ksilt~   ~Ksilt~   ~Ksilt~   ~Ksilt~   ~Ksand~   ~Ksand~   ~Ksand~   ~Ksand~   ~Ksand~   ~Ksand~
   ~Ksand~   ~Ksand~   ~Ksand~   ~Ksilt~   ~Ksilt~   ~Ksilt~   ~Ksilt~   ~Ksilt~   ~Ksilt~   ~Ksand~   ~Ksand~   ~Ksand~   ~Ksand~   ~Ksand~   ~Ksand~
   ~Ksand~   ~Ksand~   ~Ksand~   ~Ksand~   ~Ksand~   ~Ksand~   ~Ksand~   ~Ksand~   ~Ksand~   ~Ksand~   ~Ksand~   ~Ksand~   ~Ksand~   ~Ksand~   ~Ksand~
   ~Ksand~   ~Ksand~   ~Ksand~   ~Ksand~   ~Ksand~   ~Ksand~   ~Ksand~   ~Ksand~   ~Ksand~   ~Ksand~   ~Ksand~   ~Ksand~   ~Ksand~   ~Ksand~   ~Ksand~
   ~Ksand~   ~Ksand~   ~Ksand~   ~Ksand~   ~Ksand~   ~Ksand~   ~Ksand~   ~Ksand~   ~Ksand~   ~Ksand~   ~Ksand~   ~Ksand~   ~Ksand~   ~Ksand~   ~Ksand~
   ~Ksand~   ~Ksand~   ~Ksand~   ~Ksand~   ~Ksand~   ~Ksand~   ~Ksand~   ~Ksand~   ~Ksand~   ~Ksand~   ~Ksand~   ~Ksand~   ~Ksand~   ~Ksand~   ~Ksand~
   ~Ksand~   ~Ksand~   ~Ksand~   ~Ksand~   ~Ksand~   ~Ksand~   ~Ksand~   ~Ksand~   ~Ksand~   ~Ksand~   ~Ksand~   ~Ksand~   ~Ksand~   ~Ksand~   ~Ksand~
   ~Ksand~   ~Ksand~   ~Ksand~   ~Ksand~   ~Ksand~   ~Ksand~   ~Ksand~   ~Ksand~   ~Ksand~   ~Ksand~   ~Ksand~   ~Ksand~   ~Ksand~   ~Ksand~   ~Ksand~
   ~Ksand~   ~Ksand~   ~Ksand~   ~Ksand~   ~Ksand~   ~Ksand~   ~Ksand~   ~Ksand~   ~Ksand~   ~Ksand~   ~Ksand~   ~Ksand~   ~Ksand~   ~Ksand~   ~Ksand~
   ~Ksand~   ~Ksand~   ~Ksand~   ~Ksand~   ~Ksand~   ~Ksand~   ~Ksand~   ~Ksand~   ~Ksand~   ~Ksand~   ~Ksand~   ~Ksand~   ~Ksand~   ~Ksand~   ~Ksand~
CONSTANT    1.000000E+00                           #vka Layer 1                   
CONSTANT    1.000000E-04                           #ss Layer 1                    
CONSTANT   ~sy          ~                           #sy Layer 1                    
